<?xml version="1.0" encoding="UTF-8"?>

<!-- generated on 2025-11-08 20:16:36.368228 by osmWebWizard.py UNKNOWN
<configuration>
    <net-file value="/home/tharindu/Sumo/2025-11-08-20-16-21/osm.net.xml.gz"/>
    <output-trip-file value="/home/tharindu/Sumo/2025-11-08-20-16-21/osm.passenger.trips.xml"/>
    <route-file value="/home/tharindu/Sumo/2025-11-08-20-16-21/osm.passenger.rou.xml"/>
    <prefix value="veh"/>
    <trip-attributes value="departLane=&quot;best&quot;"/>
    <fringe-start-attributes value="departSpeed=&quot;max&quot;"/>
    <vehicle-class value="passenger"/>
    <lanes value="True"/>
    <fringe-factor value="8"/>
    <allow-fringe.min-length value="1000.0"/>
    <edge-permission value="passenger"/>
    <via-edge-types value="highway.motorway,highway.motorway_link,highway.trunk_link,highway.primary_link,highway.secondary_link,highway.tertiary_link"/>
    <min-distance value="300.0"/>
    <min-distance.fringe value="10.0"/>
    <remove-loops value="True"/>
    <insertion-density value="40.0"/>
</configuration>
-->

<routes xmlns:xsi="http://www.w3.org/2001/XMLSchema-instance" xsi:noNamespaceSchemaLocation="http://sumo.dlr.de/xsd/routes_file.xsd">
    <vType id="veh_passenger" vClass="passenger"/>
    <trip id="veh0" depart="0.00" from="-487101504" to="-398190313#9" departLane="best" type="veh_passenger" departSpeed="max"/>
    <trip id="veh1" depart="7.65" from="532086362" to="16465956#2" departLane="best" type="veh_passenger"/>
    <trip id="veh2" depart="15.30" from="-16465959#1" to="1294818351" departLane="best" type="veh_passenger"/>
    <trip id="veh3" depart="22.95" from="-1294818343#1" to="-398190313#1" departLane="best" type="veh_passenger"/>
    <trip id="veh4" depart="30.60" from="16465959#2" to="1309692164#1" departLane="best" type="veh_passenger"/>
    <trip id="veh5" depart="38.25" from="-16465959#2" to="137209469" departLane="best" type="veh_passenger"/>
    <trip id="veh6" depart="45.90" from="674173236#0" to="-1294818340#1" departLane="best" type="veh_passenger"/>
    <trip id="veh7" depart="53.55" from="674173236#0" to="16465959#2" departLane="best" type="veh_passenger"/>
    <trip id="veh8" depart="61.20" from="-78140414#0" to="-16465958#1" departLane="best" type="veh_passenger"/>
    <trip id="veh9" depart="68.85" from="8170204" to="-8875439" departLane="best" type="veh_passenger"/>
    <trip id="veh10" depart="76.49" from="-1294818350#0" to="-1309210016" departLane="best" type="veh_passenger"/>
    <trip id="veh11" depart="84.14" from="674173236#0" to="201237460#1" departLane="best" type="veh_passenger"/>
    <trip id="veh12" depart="91.79" from="137209465" to="8597107#3" departLane="best" type="veh_passenger"/>
    <trip id="veh13" depart="99.44" from="-8625131#1" to="1353874822" departLane="best" type="veh_passenger"/>
    <trip id="veh14" depart="107.09" from="759535259#0" to="14340729" departLane="best" type="veh_passenger" departSpeed="max"/>
    <trip id="veh15" depart="114.74" from="759535259#0" to="137191883" departLane="best" type="veh_passenger" departSpeed="max"/>
    <trip id="veh16" depart="122.39" from="398190313#0" to="-1294818346#1" departLane="best" type="veh_passenger"/>
    <trip id="veh17" depart="130.04" from="-1294818348" to="-532086362" departLane="best" type="veh_passenger"/>
    <trip id="veh18" depart="137.69" from="-1294818353" to="-541361416" departLane="best" type="veh_passenger"/>
    <trip id="veh19" depart="145.34" from="16465958#1" to="-9750333#1" departLane="best" type="veh_passenger"/>
    <trip id="veh20" depart="152.99" from="-8597107#2" to="-398190313#4" departLane="best" type="veh_passenger"/>
    <trip id="veh21" depart="160.64" from="-398190313#7" to="8029078#1" departLane="best" type="veh_passenger"/>
    <trip id="veh22" depart="168.29" from="-136473724" to="-9750333#1" departLane="best" type="veh_passenger"/>
    <trip id="veh23" depart="175.94" from="137308922#1" to="16465958#1" departLane="best" type="veh_passenger"/>
    <trip id="veh24" depart="183.59" from="759535259#0" to="278787274#0" departLane="best" type="veh_passenger" departSpeed="max"/>
    <trip id="veh25" depart="191.24" from="-278787274#1" to="-1294818344" departLane="best" type="veh_passenger"/>
    <trip id="veh26" depart="198.89" from="78140414#0" to="-8597107#0" departLane="best" type="veh_passenger"/>
    <trip id="veh27" depart="206.54" from="-398190313#7" to="-541359186#1" departLane="best" type="veh_passenger"/>
    <trip id="veh28" depart="214.18" from="14340731" to="6167202" departLane="best" type="veh_passenger"/>
    <trip id="veh29" depart="221.83" from="1294818341" to="-398190313#8" departLane="best" type="veh_passenger"/>
    <trip id="veh30" depart="229.48" from="93756990" to="1294818353" departLane="best" type="veh_passenger"/>
    <trip id="veh31" depart="237.13" from="-1294818350#0" to="-1294818346#2" departLane="best" type="veh_passenger"/>
    <trip id="veh32" depart="244.78" from="-1294818356#1" to="14340731" departLane="best" type="veh_passenger" departSpeed="max"/>
    <trip id="veh33" depart="252.43" from="6167203" to="1294818342#3" departLane="best" type="veh_passenger"/>
    <trip id="veh34" depart="260.08" from="8597107#2" to="541359186#1" departLane="best" type="veh_passenger"/>
    <trip id="veh35" depart="267.73" from="-1294818342#0" to="201237460#1" departLane="best" type="veh_passenger"/>
    <trip id="veh36" depart="275.38" from="278787274#3" to="1309692163" departLane="best" type="veh_passenger"/>
    <trip id="veh37" depart="283.03" from="-1294818356#1" to="1294818344" departLane="best" type="veh_passenger" departSpeed="max"/>
    <trip id="veh38" depart="290.68" from="78140414#0" to="-541361416" departLane="best" type="veh_passenger"/>
    <trip id="veh39" depart="298.33" from="1309692164#1" to="-278787274#2" departLane="best" type="veh_passenger"/>
    <trip id="veh40" depart="305.98" from="-487101504" to="14340736" departLane="best" type="veh_passenger" departSpeed="max"/>
    <trip id="veh41" depart="313.63" from="541361416" to="1294818358#1" departLane="best" type="veh_passenger" departSpeed="max"/>
    <trip id="veh42" depart="321.28" from="-1294818342#3" to="78140414#0" departLane="best" type="veh_passenger"/>
    <trip id="veh43" depart="328.93" from="78140414#0" to="8029080#2" departLane="best" type="veh_passenger"/>
    <trip id="veh44" depart="336.58" from="541361416" to="-16465950#1" departLane="best" type="veh_passenger" departSpeed="max"/>
    <trip id="veh45" depart="344.23" from="-398190313#7" to="6140652" departLane="best" type="veh_passenger"/>
    <trip id="veh46" depart="351.87" from="1294818344" to="-398190313#5" departLane="best" type="veh_passenger"/>
    <trip id="veh47" depart="359.52" from="137209468" to="201237460#1" departLane="best" type="veh_passenger"/>
    <trip id="veh48" depart="367.17" from="-16465956#2" to="-8170204" departLane="best" type="veh_passenger"/>
    <trip id="veh49" depart="374.82" from="1294818346#2" to="1294818356#1" departLane="best" type="veh_passenger"/>
    <trip id="veh50" depart="382.47" from="759535259#0" to="-1294818350#1" departLane="best" type="veh_passenger" departSpeed="max"/>
    <trip id="veh51" depart="390.12" from="8076778" to="137191880" departLane="best" type="veh_passenger" departSpeed="max"/>
    <trip id="veh52" depart="397.77" from="674173236#0" to="-278787276" departLane="best" type="veh_passenger"/>
    <trip id="veh53" depart="405.42" from="398190313#8" to="16465956#1" departLane="best" type="veh_passenger"/>
    <trip id="veh54" depart="413.07" from="759535259#0" to="-541359186#1" departLane="best" type="veh_passenger" departSpeed="max"/>
    <trip id="veh55" depart="420.72" from="1294818344" to="-541361416" departLane="best" type="veh_passenger"/>
    <trip id="veh56" depart="428.37" from="-398190313#1" to="674173236#1" departLane="best" type="veh_passenger"/>
    <trip id="veh57" depart="436.02" from="1294818348" to="541359186#1" departLane="best" type="veh_passenger"/>
    <trip id="veh58" depart="443.67" from="137308922#0" to="-1294818348" departLane="best" type="veh_passenger"/>
    <trip id="veh59" depart="451.32" from="8597107#2" to="674173236#1" departLane="best" type="veh_passenger"/>
    <trip id="veh60" depart="458.97" from="759535259#0" to="-16465959#1" departLane="best" type="veh_passenger" departSpeed="max"/>
    <trip id="veh61" depart="466.62" from="1294818358#0" to="-398190313#5" departLane="best" type="veh_passenger"/>
    <trip id="veh62" depart="474.27" from="-8625131#1" to="8625233" departLane="best" type="veh_passenger"/>
    <trip id="veh63" depart="481.92" from="8170204" to="8875439" departLane="best" type="veh_passenger"/>
    <trip id="veh64" depart="489.56" from="8597107#1" to="137209465" departLane="best" type="veh_passenger"/>
    <trip id="veh65" depart="497.21" from="137209469" to="201237460#1" departLane="best" type="veh_passenger"/>
    <trip id="veh66" depart="504.86" from="14340740" to="16465956#2" departLane="best" type="veh_passenger"/>
    <trip id="veh67" depart="512.51" from="-278787274#3" to="-14340744" departLane="best" type="veh_passenger"/>
    <trip id="veh68" depart="520.16" from="8029080#0" to="-541359186#1" departLane="best" type="veh_passenger"/>
    <trip id="veh69" depart="527.81" from="1294818343#1" to="137209468" departLane="best" type="veh_passenger"/>
    <trip id="veh70" depart="535.46" from="-16465958#0" to="201237460#1" departLane="best" type="veh_passenger"/>
    <trip id="veh71" depart="543.11" from="-278787274#4" to="-9750333#1" departLane="best" type="veh_passenger"/>
    <trip id="veh72" depart="550.76" from="278787274#0" to="-8029078#2" departLane="best" type="veh_passenger"/>
    <trip id="veh73" depart="558.41" from="-541359186#0" to="201237460#1" departLane="best" type="veh_passenger"/>
    <trip id="veh74" depart="566.06" from="93756990" to="8875439" departLane="best" type="veh_passenger"/>
    <trip id="veh75" depart="573.71" from="78140414#1" to="6140652" departLane="best" type="veh_passenger"/>
    <trip id="veh76" depart="581.36" from="759535259#0" to="201237459" departLane="best" type="veh_passenger" departSpeed="max"/>
    <trip id="veh77" depart="589.01" from="16465950#2" to="8869655" departLane="best" type="veh_passenger"/>
    <trip id="veh78" depart="596.66" from="201237459" to="-1294818341" departLane="best" type="veh_passenger"/>
    <trip id="veh79" depart="604.31" from="674173236#1" to="-8029078#2" departLane="best" type="veh_passenger"/>
    <trip id="veh80" depart="611.96" from="201237462" to="8029078#1" departLane="best" type="veh_passenger"/>
    <trip id="veh81" depart="619.61" from="-398190313#9" to="137308922#1" departLane="best" type="veh_passenger"/>
    <trip id="veh82" depart="627.25" from="16465958#0" to="-541361416" departLane="best" type="veh_passenger"/>
    <trip id="veh83" depart="634.90" from="759535259#0" to="-1294818358#0" departLane="best" type="veh_passenger" departSpeed="max"/>
    <trip id="veh84" depart="642.55" from="1294818344" to="-541361416" departLane="best" type="veh_passenger"/>
    <trip id="veh85" depart="650.20" from="-1294818340#1" to="201237462" departLane="best" type="veh_passenger"/>
    <trip id="veh86" depart="657.85" from="16465958#1" to="-541361416" departLane="best" type="veh_passenger"/>
    <trip id="veh87" depart="665.50" from="541359185" to="1353874822" departLane="best" type="veh_passenger"/>
    <trip id="veh88" depart="673.15" from="1294818345#1" to="-1294818341" departLane="best" type="veh_passenger"/>
    <trip id="veh89" depart="680.80" from="8076778" to="1309692164#1" departLane="best" type="veh_passenger" departSpeed="max"/>
    <trip id="veh90" depart="688.45" from="759535259#0" to="137209468" departLane="best" type="veh_passenger" departSpeed="max"/>
    <trip id="veh91" depart="696.10" from="-1294818358#1" to="-16465950#1" departLane="best" type="veh_passenger"/>
    <trip id="veh92" depart="703.75" from="-532086361#1" to="6167202" departLane="best" type="veh_passenger"/>
    <trip id="veh93" depart="711.40" from="6167204#0" to="541359186#0" departLane="best" type="veh_passenger"/>
    <trip id="veh94" depart="719.05" from="8076778" to="-398190313#4" departLane="best" type="veh_passenger" departSpeed="max"/>
    <trip id="veh95" depart="726.70" from="-398190313#1" to="-1356343632" departLane="best" type="veh_passenger"/>
    <trip id="veh96" depart="734.35" from="1294818342#2" to="14340729" departLane="best" type="veh_passenger"/>
    <trip id="veh97" depart="742.00" from="-1356343632" to="78140414#0" departLane="best" type="veh_passenger"/>
    <trip id="veh98" depart="749.65" from="759535259#0" to="8597107#4" departLane="best" type="veh_passenger" departSpeed="max"/>
    <trip id="veh99" depart="757.30" from="-1294818343#1" to="201237460#1" departLane="best" type="veh_passenger"/>
    <trip id="veh100" depart="764.94" from="-6167204#1" to="78140414#0" departLane="best" type="veh_passenger"/>
    <trip id="veh101" depart="772.59" from="6167204#2" to="541359186#1" departLane="best" type="veh_passenger"/>
    <trip id="veh102" depart="780.24" from="541361416" to="-1356467939" departLane="best" type="veh_passenger" departSpeed="max"/>
    <trip id="veh103" depart="787.89" from="759535259#0" to="541359186#0" departLane="best" type="veh_passenger" departSpeed="max"/>
    <trip id="veh104" depart="795.54" from="-1294818343#0" to="-398190313#0" departLane="best" type="veh_passenger"/>
    <trip id="veh105" depart="803.19" from="-6167204#0" to="541359186#1" departLane="best" type="veh_passenger"/>
    <trip id="veh106" depart="810.84" from="16465958#2" to="-9750333#1" departLane="best" type="veh_passenger"/>
    <trip id="veh107" depart="818.49" from="8625131#1" to="1309692163" departLane="best" type="veh_passenger"/>
    <trip id="veh108" depart="826.14" from="8076778" to="-137191882" departLane="best" type="veh_passenger" departSpeed="max"/>
    <trip id="veh109" depart="833.79" from="8597107#2" to="-278787274#1" departLane="best" type="veh_passenger"/>
    <trip id="veh110" depart="841.44" from="8597107#0" to="-541361416" departLane="best" type="veh_passenger"/>
    <trip id="veh111" depart="849.09" from="-1294818356#1" to="1294818344" departLane="best" type="veh_passenger" departSpeed="max"/>
    <trip id="veh112" depart="856.74" from="16465950#0" to="1294818356#0" departLane="best" type="veh_passenger"/>
    <trip id="veh113" depart="864.39" from="-8875439" to="137191883" departLane="best" type="veh_passenger"/>
    <trip id="veh114" depart="872.04" from="-398190313#3" to="201237460#1" departLane="best" type="veh_passenger"/>
    <trip id="veh115" depart="879.69" from="-1294818340#0" to="674173236#1" departLane="best" type="veh_passenger"/>
    <trip id="veh116" depart="887.34" from="137209468" to="201237460#1" departLane="best" type="veh_passenger"/>
    <trip id="veh117" depart="894.99" from="541359185" to="16465956#0" departLane="best" type="veh_passenger"/>
    <trip id="veh118" depart="902.63" from="201237462" to="-8597107#4" departLane="best" type="veh_passenger"/>
    <trip id="veh119" depart="910.28" from="398190313#5" to="-8029080#0" departLane="best" type="veh_passenger"/>
    <trip id="veh120" depart="917.93" from="1294818341" to="-8029078#1" departLane="best" type="veh_passenger"/>
    <trip id="veh121" depart="925.58" from="-1294818356#1" to="1294818342#2" departLane="best" type="veh_passenger" departSpeed="max"/>
    <trip id="veh122" depart="933.23" from="8076778" to="16465956#2" departLane="best" type="veh_passenger" departSpeed="max"/>
    <trip id="veh123" depart="940.88" from="-487101504" to="1309713903" departLane="best" type="veh_passenger" departSpeed="max"/>
    <trip id="veh124" depart="948.53" from="1294818345#1" to="137209465" departLane="best" type="veh_passenger"/>
    <trip id="veh125" depart="956.18" from="1294818348" to="-398190313#5" departLane="best" type="veh_passenger"/>
    <trip id="veh126" depart="963.83" from="16465958#0" to="-8625131#1" departLane="best" type="veh_passenger"/>
    <trip id="veh127" depart="971.48" from="674173236#1" to="201237460#1" departLane="best" type="veh_passenger"/>
    <trip id="veh128" depart="979.13" from="759535259#0" to="-1294818351" departLane="best" type="veh_passenger" departSpeed="max"/>
    <trip id="veh129" depart="986.78" from="1294818343#0" to="14340731" departLane="best" type="veh_passenger"/>
    <trip id="veh130" depart="994.43" from="-16465956#0" to="16465959#1" departLane="best" type="veh_passenger"/>
    <trip id="veh131" depart="1002.08" from="201237459" to="-1294818340#1" departLane="best" type="veh_passenger"/>
    <trip id="veh132" depart="1009.73" from="-1294818356#0" to="1294818343#0" departLane="best" type="veh_passenger"/>
    <trip id="veh133" depart="1017.38" from="-16465950#0" to="8571344" departLane="best" type="veh_passenger"/>
    <trip id="veh134" depart="1025.03" from="-398190313#1" to="541359185" departLane="best" type="veh_passenger"/>
    <trip id="veh135" depart="1032.68" from="1294818350#0" to="278787280" departLane="best" type="veh_passenger"/>
    <trip id="veh136" depart="1040.32" from="201237462" to="8869655" departLane="best" type="veh_passenger"/>
    <trip id="veh137" depart="1047.97" from="14340740" to="8076781" departLane="best" type="veh_passenger"/>
    <trip id="veh138" depart="1055.62" from="8029080#0" to="14340724" departLane="best" type="veh_passenger"/>
    <trip id="veh139" depart="1063.27" from="759535259#0" to="1309713903" departLane="best" type="veh_passenger" departSpeed="max"/>
    <trip id="veh140" depart="1070.92" from="8076778" to="201237460#1" departLane="best" type="veh_passenger" departSpeed="max"/>
    <trip id="veh141" depart="1078.57" from="1294818356#1" to="-541361416" departLane="best" type="veh_passenger"/>
    <trip id="veh142" depart="1086.22" from="-398190313#1" to="14340736" departLane="best" type="veh_passenger"/>
    <trip id="veh143" depart="1093.87" from="541361416" to="1294818357#1" departLane="best" type="veh_passenger" departSpeed="max"/>
    <trip id="veh144" depart="1101.52" from="16465956#1" to="-541361416" departLane="best" type="veh_passenger"/>
    <trip id="veh145" depart="1109.17" from="-398190313#9" to="-8597107#1" departLane="best" type="veh_passenger"/>
    <trip id="veh146" depart="1116.82" from="137209468" to="-16465952" departLane="best" type="veh_passenger"/>
    <trip id="veh147" depart="1124.47" from="1294818342#2" to="1309692164#0" departLane="best" type="veh_passenger"/>
    <trip id="veh148" depart="1132.12" from="1294818343#0" to="-398190313#3" departLane="best" type="veh_passenger"/>
    <trip id="veh149" depart="1139.77" from="1294818344" to="6167204#0" departLane="best" type="veh_passenger"/>
    <trip id="veh150" depart="1147.42" from="14340731" to="16465959#1" departLane="best" type="veh_passenger"/>
    <trip id="veh151" depart="1155.07" from="-8029080#2" to="201237460#1" departLane="best" type="veh_passenger"/>
    <trip id="veh152" depart="1162.72" from="759535259#0" to="8076781" departLane="best" type="veh_passenger" departSpeed="max"/>
    <trip id="veh153" depart="1170.37" from="1294818343#1" to="201237460#1" departLane="best" type="veh_passenger"/>
    <trip id="veh154" depart="1178.01" from="137209470" to="137308922#1" departLane="best" type="veh_passenger"/>
    <trip id="veh155" depart="1185.66" from="-16465959#2" to="-398190313#8" departLane="best" type="veh_passenger"/>
    <trip id="veh156" depart="1193.31" from="1294818342#0" to="-16465959#1" departLane="best" type="veh_passenger"/>
    <trip id="veh157" depart="1200.96" from="1294818353" to="-16465950#1" departLane="best" type="veh_passenger"/>
    <trip id="veh158" depart="1208.61" from="1294818340#0" to="137191879" departLane="best" type="veh_passenger"/>
    <trip id="veh159" depart="1216.26" from="-1294818343#1" to="14340740" departLane="best" type="veh_passenger"/>
    <trip id="veh160" depart="1223.91" from="541359186#0" to="398190313#7" departLane="best" type="veh_passenger"/>
    <trip id="veh161" depart="1231.56" from="-1294818342#3" to="1309692164#0" departLane="best" type="veh_passenger"/>
    <trip id="veh162" depart="1239.21" from="93756990" to="-9750333#1" departLane="best" type="veh_passenger"/>
    <trip id="veh163" depart="1246.86" from="16465959#2" to="201237460#1" departLane="best" type="veh_passenger"/>
    <trip id="veh164" depart="1254.51" from="8076778" to="-398190313#1" departLane="best" type="veh_passenger" departSpeed="max"/>
    <trip id="veh165" depart="1262.16" from="-1294818342#3" to="-16465958#0" departLane="best" type="veh_passenger"/>
    <trip id="veh166" depart="1269.81" from="-1294818356#1" to="16465956#0" departLane="best" type="veh_passenger" departSpeed="max"/>
    <trip id="veh167" depart="1277.46" from="137884480" to="-398190313#8" departLane="best" type="veh_passenger"/>
    <trip id="veh168" depart="1285.11" from="-137191882" to="137884480" departLane="best" type="veh_passenger"/>
    <trip id="veh169" depart="1292.76" from="674173236#1" to="8597107#1" departLane="best" type="veh_passenger"/>
    <trip id="veh170" depart="1300.41" from="-1294818356#1" to="-1294818343#1" departLane="best" type="veh_passenger" departSpeed="max"/>
    <trip id="veh171" depart="1308.06" from="-532086362" to="16465956#2" departLane="best" type="veh_passenger"/>
    <trip id="veh172" depart="1315.70" from="8170204" to="-9750333#1" departLane="best" type="veh_passenger"/>
    <trip id="veh173" depart="1323.35" from="278787276" to="14340731" departLane="best" type="veh_passenger"/>
    <trip id="veh174" depart="1331.00" from="1294818345#1" to="-9750333#1" departLane="best" type="veh_passenger"/>
    <trip id="veh175" depart="1338.65" from="1309713903" to="-93756990" departLane="best" type="veh_passenger"/>
    <trip id="veh176" depart="1346.30" from="759535259#0" to="398190313#4" departLane="best" type="veh_passenger" departSpeed="max"/>
    <trip id="veh177" depart="1353.95" from="-1294818356#0" to="8597107#0" departLane="best" type="veh_passenger"/>
    <trip id="veh178" depart="1361.60" from="16465958#1" to="398190313#7" departLane="best" type="veh_passenger"/>
    <trip id="veh179" depart="1369.25" from="398190313#1" to="1294818344" departLane="best" type="veh_passenger"/>
    <trip id="veh180" depart="1376.90" from="137209465" to="1294818348" departLane="best" type="veh_passenger"/>
    <trip id="veh181" depart="1384.55" from="1294818346#1" to="201237460#1" departLane="best" type="veh_passenger"/>
    <trip id="veh182" depart="1392.20" from="-398190313#8" to="541359185" departLane="best" type="veh_passenger"/>
    <trip id="veh183" depart="1399.85" from="759535259#0" to="-1294818357#2" departLane="best" type="veh_passenger" departSpeed="max"/>
    <trip id="veh184" depart="1407.50" from="-8625131#1" to="-1294818344" departLane="best" type="veh_passenger"/>
    <trip id="veh185" depart="1415.15" from="759535259#0" to="-278787274#2" departLane="best" type="veh_passenger" departSpeed="max"/>
    <trip id="veh186" depart="1422.80" from="-16465959#0" to="278787279" departLane="best" type="veh_passenger"/>
    <trip id="veh187" depart="1430.45" from="-8029078#1" to="6140652" departLane="best" type="veh_passenger"/>
    <trip id="veh188" depart="1438.10" from="-1294818341" to="8029080#2" departLane="best" type="veh_passenger"/>
    <trip id="veh189" depart="1445.75" from="-1294818349#1" to="201237460#1" departLane="best" type="veh_passenger"/>
    <trip id="veh190" depart="1453.39" from="1294818358#1" to="201237460#1" departLane="best" type="veh_passenger"/>
    <trip id="veh191" depart="1461.04" from="278787276" to="14340744" departLane="best" type="veh_passenger"/>
    <trip id="veh192" depart="1468.69" from="1309210015" to="278787276" departLane="best" type="veh_passenger"/>
    <trip id="veh193" depart="1476.34" from="-1294818350#0" to="-398190313#9" departLane="best" type="veh_passenger"/>
    <trip id="veh194" depart="1483.99" from="278787279" to="-8029080#2" departLane="best" type="veh_passenger"/>
    <trip id="veh195" depart="1491.64" from="137191882" to="1294818343#0" departLane="best" type="veh_passenger"/>
    <trip id="veh196" depart="1499.29" from="541359185" to="-8597107#4" departLane="best" type="veh_passenger"/>
    <trip id="veh197" depart="1506.94" from="398190313#0" to="-541361416" departLane="best" type="veh_passenger"/>
    <trip id="veh198" depart="1514.59" from="-16465956#0" to="-14340744" departLane="best" type="veh_passenger"/>
    <trip id="veh199" depart="1522.24" from="137209465" to="201237461#0" departLane="best" type="veh_passenger"/>
    <trip id="veh200" depart="1529.89" from="-16465950#3" to="-398190313#7" departLane="best" type="veh_passenger"/>
    <trip id="veh201" depart="1537.54" from="1294818358#0" to="201237460#1" departLane="best" type="veh_passenger"/>
    <trip id="veh202" depart="1545.19" from="-16465956#0" to="-532086361#0" departLane="best" type="veh_passenger"/>
    <trip id="veh203" depart="1552.84" from="137191883" to="-541361416" departLane="best" type="veh_passenger"/>
    <trip id="veh204" depart="1560.49" from="8597107#3" to="1353874822" departLane="best" type="veh_passenger"/>
    <trip id="veh205" depart="1568.14" from="278787280" to="-16465950#1" departLane="best" type="veh_passenger"/>
    <trip id="veh206" depart="1575.79" from="759535259#0" to="1294818349#1" departLane="best" type="veh_passenger" departSpeed="max"/>
    <trip id="veh207" depart="1583.44" from="759535259#0" to="137191882" departLane="best" type="veh_passenger" departSpeed="max"/>
    <trip id="veh208" depart="1591.08" from="1294818356#0" to="1294818345#1" departLane="best" type="veh_passenger"/>
    <trip id="veh209" depart="1598.73" from="759535259#0" to="122047165" departLane="best" type="veh_passenger" departSpeed="max"/>
    <trip id="veh210" depart="1606.38" from="137884480" to="-8029080#2" departLane="best" type="veh_passenger"/>
    <trip id="veh211" depart="1614.03" from="8875439" to="-14340744" departLane="best" type="veh_passenger"/>
    <trip id="veh212" depart="1621.68" from="137191879" to="1294818346#2" departLane="best" type="veh_passenger"/>
    <trip id="veh213" depart="1629.33" from="1294818348" to="541359186#0" departLane="best" type="veh_passenger"/>
    <trip id="veh214" depart="1636.98" from="8869656" to="-8029080#2" departLane="best" type="veh_passenger"/>
    <trip id="veh215" depart="1644.63" from="541359185" to="8029080#2" departLane="best" type="veh_passenger"/>
    <trip id="veh216" depart="1652.28" from="-16465958#1" to="-398190313#5" departLane="best" type="veh_passenger"/>
    <trip id="veh217" depart="1659.93" from="201237461#0" to="-16465958#1" departLane="best" type="veh_passenger"/>
    <trip id="veh218" depart="1667.58" from="-16465950#0" to="-1294818353" departLane="best" type="veh_passenger"/>
    <trip id="veh219" depart="1675.23" from="-1294818340#0" to="1294818346#2" departLane="best" type="veh_passenger"/>
    <trip id="veh220" depart="1682.88" from="-278787274#2" to="201237460#1" departLane="best" type="veh_passenger"/>
    <trip id="veh221" depart="1690.53" from="278787274#4" to="674173236#1" departLane="best" type="veh_passenger"/>
    <trip id="veh222" depart="1698.18" from="201237461#0" to="78140414#1" departLane="best" type="veh_passenger"/>
    <trip id="veh223" depart="1705.83" from="1294818345#0" to="1309692164#1" departLane="best" type="veh_passenger"/>
    <trip id="veh224" depart="1713.48" from="759535259#0" to="-1294818350#1" departLane="best" type="veh_passenger" departSpeed="max"/>
    <trip id="veh225" depart="1721.13" from="-136473724" to="-8076781" departLane="best" type="veh_passenger"/>
    <trip id="veh226" depart="1728.77" from="-487101504" to="-16465950#0" departLane="best" type="veh_passenger" departSpeed="max"/>
    <trip id="veh227" depart="1736.42" from="278787276" to="16465959#2" departLane="best" type="veh_passenger"/>
    <trip id="veh228" depart="1744.07" from="8076778" to="1294818350#1" departLane="best" type="veh_passenger" departSpeed="max"/>
    <trip id="veh229" depart="1751.72" from="1309692163" to="-1294818356#0" departLane="best" type="veh_passenger"/>
    <trip id="veh230" depart="1759.37" from="759535259#0" to="137191883" departLane="best" type="veh_passenger" departSpeed="max"/>
    <trip id="veh231" depart="1767.02" from="8076778" to="93756990" departLane="best" type="veh_passenger" departSpeed="max"/>
    <trip id="veh232" depart="1774.67" from="278787274#0" to="-541361416" departLane="best" type="veh_passenger"/>
    <trip id="veh233" depart="1782.32" from="-1294818346#0" to="201237460#1" departLane="best" type="veh_passenger"/>
    <trip id="veh234" depart="1789.97" from="1294818356#0" to="16465950#0" departLane="best" type="veh_passenger"/>
    <trip id="veh235" depart="1797.62" from="8076778" to="-278787274#2" departLane="best" type="veh_passenger" departSpeed="max"/>
    <trip id="veh236" depart="1805.27" from="1309210015" to="-1294818358#0" departLane="best" type="veh_passenger"/>
    <trip id="veh237" depart="1812.92" from="-487101504" to="8029080#0" departLane="best" type="veh_passenger" departSpeed="max"/>
    <trip id="veh238" depart="1820.57" from="674173236#1" to="1353874822" departLane="best" type="veh_passenger"/>
    <trip id="veh239" depart="1828.22" from="-541359186#1" to="8597107#2" departLane="best" type="veh_passenger"/>
    <trip id="veh240" depart="1835.87" from="1294818342#0" to="1294818356#1" departLane="best" type="veh_passenger"/>
    <trip id="veh241" depart="1843.52" from="8869655" to="16465950#2" departLane="best" type="veh_passenger"/>
    <trip id="veh242" depart="1851.17" from="137209469" to="1294818341" departLane="best" type="veh_passenger"/>
    <trip id="veh243" depart="1858.82" from="-16465952" to="-9750333#1" departLane="best" type="veh_passenger"/>
    <trip id="veh244" depart="1866.46" from="541359186#1" to="-398190313#2" departLane="best" type="veh_passenger"/>