<?xml version="1.0" encoding="UTF-8"?>

<!-- generated on 2025-11-08 15:20:45.138198 by osmWebWizard.py UNKNOWN
<configuration>
    <net-file value="/home/tharindu/Sumo/2025-11-08-15-20-30/osm.net.xml.gz"/>
    <output-trip-file value="/home/tharindu/Sumo/2025-11-08-15-20-30/osm.passenger.trips.xml"/>
    <route-file value="/home/tharindu/Sumo/2025-11-08-15-20-30/osm.passenger.rou.xml"/>
    <prefix value="veh"/>
    <trip-attributes value="departLane=&quot;best&quot;"/>
    <fringe-start-attributes value="departSpeed=&quot;max&quot;"/>
    <vehicle-class value="passenger"/>
    <lanes value="True"/>
    <fringe-factor value="8"/>
    <allow-fringe.min-length value="1000.0"/>
    <edge-permission value="passenger"/>
    <via-edge-types value="highway.motorway,highway.motorway_link,highway.trunk_link,highway.primary_link,highway.secondary_link,highway.tertiary_link"/>
    <min-distance value="300.0"/>
    <min-distance.fringe value="10.0"/>
    <remove-loops value="True"/>
    <end value="7200.0"/>
    <insertion-density value="120.0"/>
</configuration>
-->

<routes xmlns:xsi="http://www.w3.org/2001/XMLSchema-instance" xsi:noNamespaceSchemaLocation="http://sumo.dlr.de/xsd/routes_file.xsd">
    <vType id="veh_passenger" vClass="passenger"/>
    <trip id="veh0" depart="0.00" from="-487101504" to="-398190313#9" departLane="best" type="veh_passenger" departSpeed="max"/>
    <trip id="veh1" depart="2.63" from="532086362" to="16465956#2" departLane="best" type="veh_passenger"/>
    <trip id="veh2" depart="5.26" from="-16465959#1" to="1294818351" departLane="best" type="veh_passenger"/>
    <trip id="veh3" depart="7.89" from="-1294818343#1" to="-398190313#1" departLane="best" type="veh_passenger"/>
    <trip id="veh4" depart="10.51" from="16465959#2" to="1309692164#1" departLane="best" type="veh_passenger"/>
    <trip id="veh5" depart="13.14" from="-16465959#2" to="137209469" departLane="best" type="veh_passenger"/>
    <trip id="veh6" depart="15.77" from="674173236#0" to="-1294818340#1" departLane="best" type="veh_passenger"/>
    <trip id="veh7" depart="18.40" from="674173236#0" to="16465959#2" departLane="best" type="veh_passenger"/>
    <trip id="veh8" depart="21.03" from="-78140414#0" to="-16465958#1" departLane="best" type="veh_passenger"/>
    <trip id="veh9" depart="23.66" from="8170204" to="-8875439" departLane="best" type="veh_passenger"/>
    <trip id="veh10" depart="26.29" from="-1294818350#0" to="-1309210016" departLane="best" type="veh_passenger"/>
    <trip id="veh11" depart="28.92" from="674173236#0" to="201237460#1" departLane="best" type="veh_passenger"/>
    <trip id="veh12" depart="31.54" from="137209465" to="8597107#3" departLane="best" type="veh_passenger"/>
    <trip id="veh13" depart="34.17" from="-8625131#1" to="1353874822" departLane="best" type="veh_passenger"/>
    <trip id="veh14" depart="36.80" from="759535259" to="14340729" departLane="best" type="veh_passenger" departSpeed="max"/>
    <trip id="veh15" depart="39.43" from="759535259" to="137191883" departLane="best" type="veh_passenger" departSpeed="max"/>
    <trip id="veh16" depart="42.06" from="398190313#0" to="-1294818346#1" departLane="best" type="veh_passenger"/>
    <trip id="veh17" depart="44.69" from="-1294818348" to="-532086362" departLane="best" type="veh_passenger"/>
    <trip id="veh18" depart="47.32" from="-1294818353" to="-541361416" departLane="best" type="veh_passenger"/>
    <trip id="veh19" depart="49.95" from="16465958#1" to="-9750333#1" departLane="best" type="veh_passenger"/>
    <trip id="veh20" depart="52.57" from="-8597107#2" to="-398190313#4" departLane="best" type="veh_passenger"/>
    <trip id="veh21" depart="55.20" from="-398190313#7" to="8029078#1" departLane="best" type="veh_passenger"/>
    <trip id="veh22" depart="57.83" from="-136473724" to="-9750333#1" departLane="best" type="veh_passenger"/>
    <trip id="veh23" depart="60.46" from="137308922#1" to="16465958#1" departLane="best" type="veh_passenger"/>
    <trip id="veh24" depart="63.09" from="759535259" to="278787274#0" departLane="best" type="veh_passenger" departSpeed="max"/>
    <trip id="veh25" depart="65.72" from="-278787274#1" to="-1294818344" departLane="best" type="veh_passenger"/>
    <trip id="veh26" depart="68.35" from="78140414#0" to="-8597107#0" departLane="best" type="veh_passenger"/>
    <trip id="veh27" depart="70.97" from="-398190313#7" to="-541359186#1" departLane="best" type="veh_passenger"/>
    <trip id="veh28" depart="73.60" from="14340731" to="6167202" departLane="best" type="veh_passenger"/>
    <trip id="veh29" depart="76.23" from="1294818341" to="-398190313#8" departLane="best" type="veh_passenger"/>
    <trip id="veh30" depart="78.86" from="93756990" to="1294818353" departLane="best" type="veh_passenger"/>
    <trip id="veh31" depart="81.49" from="-1294818350#0" to="-1294818346#2" departLane="best" type="veh_passenger"/>
    <trip id="veh32" depart="84.12" from="-1294818356#1" to="14340731" departLane="best" type="veh_passenger" departSpeed="max"/>
    <trip id="veh33" depart="86.75" from="6167203" to="1294818342#3" departLane="best" type="veh_passenger"/>
    <trip id="veh34" depart="89.38" from="8597107#2" to="541359186#1" departLane="best" type="veh_passenger"/>
    <trip id="veh35" depart="92.00" from="-1294818342#0" to="201237460#1" departLane="best" type="veh_passenger"/>
    <trip id="veh36" depart="94.63" from="278787274#3" to="1309692163" departLane="best" type="veh_passenger"/>
    <trip id="veh37" depart="97.26" from="-1294818356#1" to="1294818344" departLane="best" type="veh_passenger" departSpeed="max"/>
    <trip id="veh38" depart="99.89" from="78140414#0" to="-541361416" departLane="best" type="veh_passenger"/>
    <trip id="veh39" depart="102.52" from="1309692164#1" to="-278787274#2" departLane="best" type="veh_passenger"/>
    <trip id="veh40" depart="105.15" from="-487101504" to="14340736" departLane="best" type="veh_passenger" departSpeed="max"/>
    <trip id="veh41" depart="107.78" from="541361416" to="1294818358#1" departLane="best" type="veh_passenger" departSpeed="max"/>
    <trip id="veh42" depart="110.41" from="-1294818342#3" to="78140414#0" departLane="best" type="veh_passenger"/>
    <trip id="veh43" depart="113.03" from="78140414#0" to="8029080#2" departLane="best" type="veh_passenger"/>
    <trip id="veh44" depart="115.66" from="541361416" to="-16465950#1" departLane="best" type="veh_passenger" departSpeed="max"/>
    <trip id="veh45" depart="118.29" from="-398190313#7" to="6140652" departLane="best" type="veh_passenger"/>
    <trip id="veh46" depart="120.92" from="1294818344" to="-398190313#5" departLane="best" type="veh_passenger"/>
    <trip id="veh47" depart="123.55" from="137209468" to="201237460#1" departLane="best" type="veh_passenger"/>
    <trip id="veh48" depart="126.18" from="-16465956#2" to="-8170204" departLane="best" type="veh_passenger"/>
    <trip id="veh49" depart="128.81" from="1294818346#2" to="1294818356#1" departLane="best" type="veh_passenger"/>
    <trip id="veh50" depart="131.44" from="759535259" to="-1294818350#1" departLane="best" type="veh_passenger" departSpeed="max"/>
    <trip id="veh51" depart="134.06" from="8076778" to="137191880" departLane="best" type="veh_passenger" departSpeed="max"/>
    <trip id="veh52" depart="136.69" from="674173236#0" to="-278787276" departLane="best" type="veh_passenger"/>
    <trip id="veh53" depart="139.32" from="398190313#8" to="16465956#1" departLane="best" type="veh_passenger"/>
    <trip id="veh54" depart="141.95" from="759535259" to="-541359186#1" departLane="best" type="veh_passenger" departSpeed="max"/>
    <trip id="veh55" depart="144.58" from="1294818344" to="-541361416" departLane="best" type="veh_passenger"/>
    <trip id="veh56" depart="147.21" from="-398190313#1" to="674173236#1" departLane="best" type="veh_passenger"/>
    <trip id="veh57" depart="149.84" from="1294818348" to="541359186#1" departLane="best" type="veh_passenger"/>
    <trip id="veh58" depart="152.46" from="137308922#0" to="-1294818348" departLane="best" type="veh_passenger"/>
    <trip id="veh59" depart="155.09" from="8597107#2" to="674173236#1" departLane="best" type="veh_passenger"/>
    <trip id="veh60" depart="157.72" from="759535259" to="-16465959#1" departLane="best" type="veh_passenger" departSpeed="max"/>
    <trip id="veh61" depart="160.35" from="1294818358#0" to="-398190313#5" departLane="best" type="veh_passenger"/>
    <trip id="veh62" depart="162.98" from="-8625131#1" to="8625233" departLane="best" type="veh_passenger"/>
    <trip id="veh63" depart="165.61" from="8170204" to="8875439" departLane="best" type="veh_passenger"/>
    <trip id="veh64" depart="168.24" from="8597107#1" to="137209465" departLane="best" type="veh_passenger"/>
    <trip id="veh65" depart="170.87" from="137209469" to="201237460#1" departLane="best" type="veh_passenger"/>
    <trip id="veh66" depart="173.49" from="14340740" to="16465956#2" departLane="best" type="veh_passenger"/>
    <trip id="veh67" depart="176.12" from="-278787274#3" to="-14340744" departLane="best" type="veh_passenger"/>
    <trip id="veh68" depart="178.75" from="8029080#0" to="-541359186#1" departLane="best" type="veh_passenger"/>
    <trip id="veh69" depart="181.38" from="1294818343#1" to="137209468" departLane="best" type="veh_passenger"/>
    <trip id="veh70" depart="184.01" from="-16465958#0" to="201237460#1" departLane="best" type="veh_passenger"/>
    <trip id="veh71" depart="186.64" from="-278787274#4" to="-9750333#1" departLane="best" type="veh_passenger"/>
    <trip id="veh72" depart="189.27" from="278787274#0" to="-8029078#2" departLane="best" type="veh_passenger"/>
    <trip id="veh73" depart="191.90" from="-541359186#0" to="201237460#1" departLane="best" type="veh_passenger"/>
    <trip id="veh74" depart="194.52" from="93756990" to="8875439" departLane="best" type="veh_passenger"/>
    <trip id="veh75" depart="197.15" from="78140414#1" to="6140652" departLane="best" type="veh_passenger"/>
    <trip id="veh76" depart="199.78" from="759535259" to="201237459" departLane="best" type="veh_passenger" departSpeed="max"/>
    <trip id="veh77" depart="202.41" from="16465950#2" to="8869655" departLane="best" type="veh_passenger"/>
    <trip id="veh78" depart="205.04" from="201237459" to="-1294818341" departLane="best" type="veh_passenger"/>
    <trip id="veh79" depart="207.67" from="674173236#1" to="-8029078#2" departLane="best" type="veh_passenger"/>
    <trip id="veh80" depart="210.30" from="201237462" to="8029078#1" departLane="best" type="veh_passenger"/>
    <trip id="veh81" depart="212.92" from="-398190313#9" to="137308922#1" departLane="best" type="veh_passenger"/>
    <trip id="veh82" depart="215.55" from="16465958#0" to="-541361416" departLane="best" type="veh_passenger"/>
    <trip id="veh83" depart="218.18" from="759535259" to="-1294818358#0" departLane="best" type="veh_passenger" departSpeed="max"/>
    <trip id="veh84" depart="220.81" from="1294818344" to="-541361416" departLane="best" type="veh_passenger"/>
    <trip id="veh85" depart="223.44" from="-1294818340#1" to="201237462" departLane="best" type="veh_passenger"/>
    <trip id="veh86" depart="226.07" from="16465958#1" to="-541361416" departLane="best" type="veh_passenger"/>
    <trip id="veh87" depart="228.70" from="541359185" to="1353874822" departLane="best" type="veh_passenger"/>
    <trip id="veh88" depart="231.33" from="1294818345#1" to="-1294818341" departLane="best" type="veh_passenger"/>
    <trip id="veh89" depart="233.95" from="8076778" to="1309692164#1" departLane="best" type="veh_passenger" departSpeed="max"/>
    <trip id="veh90" depart="236.58" from="759535259" to="137209468" departLane="best" type="veh_passenger" departSpeed="max"/>
    <trip id="veh91" depart="239.21" from="-1294818358#1" to="-16465950#1" departLane="best" type="veh_passenger"/>
    <trip id="veh92" depart="241.84" from="-532086361#1" to="6167202" departLane="best" type="veh_passenger"/>
    <trip id="veh93" depart="244.47" from="6167204#0" to="541359186#0" departLane="best" type="veh_passenger"/>
    <trip id="veh94" depart="247.10" from="8076778" to="-398190313#4" departLane="best" type="veh_passenger" departSpeed="max"/>
    <trip id="veh95" depart="249.73" from="-398190313#1" to="-1356343632" departLane="best" type="veh_passenger"/>
    <trip id="veh96" depart="252.36" from="1294818342#2" to="14340729" departLane="best" type="veh_passenger"/>
    <trip id="veh97" depart="254.98" from="-1356343632" to="78140414#0" departLane="best" type="veh_passenger"/>
    <trip id="veh98" depart="257.61" from="759535259" to="8597107#4" departLane="best" type="veh_passenger" departSpeed="max"/>
    <trip id="veh99" depart="260.24" from="-1294818343#1" to="201237460#1" departLane="best" type="veh_passenger"/>
    <trip id="veh100" depart="262.87" from="-6167204#1" to="78140414#0" departLane="best" type="veh_passenger"/>
    <trip id="veh101" depart="265.50" from="6167204#2" to="541359186#1" departLane="best" type="veh_passenger"/>
    <trip id="veh102" depart="268.13" from="541361416" to="-1356467939" departLane="best" type="veh_passenger" departSpeed="max"/>
    <trip id="veh103" depart="270.76" from="759535259" to="541359186#0" departLane="best" type="veh_passenger" departSpeed="max"/>
    <trip id="veh104" depart="273.38" from="-1294818343#0" to="-398190313#0" departLane="best" type="veh_passenger"/>
    <trip id="veh105" depart="276.01" from="-6167204#0" to="541359186#1" departLane="best" type="veh_passenger"/>
    <trip id="veh106" depart="278.64" from="16465958#2" to="-9750333#1" departLane="best" type="veh_passenger"/>
    <trip id="veh107" depart="281.27" from="8625131#1" to="1309692163" departLane="best" type="veh_passenger"/>
    <trip id="veh108" depart="283.90" from="8076778" to="-137191882" departLane="best" type="veh_passenger" departSpeed="max"/>
    <trip id="veh109" depart="286.53" from="8597107#2" to="-278787274#1" departLane="best" type="veh_passenger"/>
    <trip id="veh110" depart="289.16" from="8597107#0" to="-541361416" departLane="best" type="veh_passenger"/>
    <trip id="veh111" depart="291.79" from="-1294818356#1" to="1294818344" departLane="best" type="veh_passenger" departSpeed="max"/>
    <trip id="veh112" depart="294.41" from="16465950#0" to="1294818356#0" departLane="best" type="veh_passenger"/>
    <trip id="veh113" depart="297.04" from="-8875439" to="137191883" departLane="best" type="veh_passenger"/>
    <trip id="veh114" depart="299.67" from="-398190313#3" to="201237460#1" departLane="best" type="veh_passenger"/>
    <trip id="veh115" depart="302.30" from="-1294818340#0" to="674173236#1" departLane="best" type="veh_passenger"/>
    <trip id="veh116" depart="304.93" from="137209468" to="201237460#1" departLane="best" type="veh_passenger"/>
    <trip id="veh117" depart="307.56" from="541359185" to="16465956#0" departLane="best" type="veh_passenger"/>
    <trip id="veh118" depart="310.19" from="201237462" to="-8597107#4" departLane="best" type="veh_passenger"/>
    <trip id="veh119" depart="312.82" from="398190313#5" to="-8029080#0" departLane="best" type="veh_passenger"/>
    <trip id="veh120" depart="315.44" from="1294818341" to="-8029078#1" departLane="best" type="veh_passenger"/>
    <trip id="veh121" depart="318.07" from="-1294818356#1" to="1294818342#2" departLane="best" type="veh_passenger" departSpeed="max"/>
    <trip id="veh122" depart="320.70" from="8076778" to="16465956#2" departLane="best" type="veh_passenger" departSpeed="max"/>
    <trip id="veh123" depart="323.33" from="-487101504" to="1309713903" departLane="best" type="veh_passenger" departSpeed="max"/>
    <trip id="veh124" depart="325.96" from="1294818345#1" to="137209465" departLane="best" type="veh_passenger"/>
    <trip id="veh125" depart="328.59" from="1294818348" to="-398190313#5" departLane="best" type="veh_passenger"/>
    <trip id="veh126" depart="331.22" from="16465958#0" to="-8625131#1" departLane="best" type="veh_passenger"/>
    <trip id="veh127" depart="333.85" from="674173236#1" to="201237460#1" departLane="best" type="veh_passenger"/>
    <trip id="veh128" depart="336.47" from="759535259" to="-1294818351" departLane="best" type="veh_passenger" departSpeed="max"/>
    <trip id="veh129" depart="339.10" from="1294818343#0" to="14340731" departLane="best" type="veh_passenger"/>
    <trip id="veh130" depart="341.73" from="-16465956#0" to="16465959#1" departLane="best" type="veh_passenger"/>
    <trip id="veh131" depart="344.36" from="201237459" to="-1294818340#1" departLane="best" type="veh_passenger"/>
    <trip id="veh132" depart="346.99" from="-1294818356#0" to="1294818343#0" departLane="best" type="veh_passenger"/>
    <trip id="veh133" depart="349.62" from="-16465950#0" to="8571344" departLane="best" type="veh_passenger"/>
    <trip id="veh134" depart="352.25" from="-398190313#1" to="541359185" departLane="best" type="veh_passenger"/>
    <trip id="veh135" depart="354.87" from="1294818350#0" to="278787280" departLane="best" type="veh_passenger"/>
    <trip id="veh136" depart="357.50" from="201237462" to="8869655" departLane="best" type="veh_passenger"/>
    <trip id="veh137" depart="360.13" from="14340740" to="8076781" departLane="best" type="veh_passenger"/>
    <trip id="veh138" depart="362.76" from="8029080#0" to="14340724" departLane="best" type="veh_passenger"/>
    <trip id="veh139" depart="365.39" from="759535259" to="1309713903" departLane="best" type="veh_passenger" departSpeed="max"/>
    <trip id="veh140" depart="368.02" from="8076778" to="201237460#1" departLane="best" type="veh_passenger" departSpeed="max"/>
    <trip id="veh141" depart="370.65" from="1294818356#1" to="-541361416" departLane="best" type="veh_passenger"/>
    <trip id="veh142" depart="373.28" from="-398190313#1" to="14340736" departLane="best" type="veh_passenger"/>
    <trip id="veh143" depart="375.90" from="541361416" to="1294818357#1" departLane="best" type="veh_passenger" departSpeed="max"/>
    <trip id="veh144" depart="378.53" from="16465956#1" to="-541361416" departLane="best" type="veh_passenger"/>
    <trip id="veh145" depart="381.16" from="-398190313#9" to="-8597107#1" departLane="best" type="veh_passenger"/>
    <trip id="veh146" depart="383.79" from="137209468" to="-16465952" departLane="best" type="veh_passenger"/>
    <trip id="veh147" depart="386.42" from="1294818342#2" to="1309692164#0" departLane="best" type="veh_passenger"/>
    <trip id="veh148" depart="389.05" from="1294818343#0" to="-398190313#3" departLane="best" type="veh_passenger"/>
    <trip id="veh149" depart="391.68" from="1294818344" to="6167204#0" departLane="best" type="veh_passenger"/>
    <trip id="veh150" depart="394.31" from="14340731" to="16465959#1" departLane="best" type="veh_passenger"/>
    <trip id="veh151" depart="396.93" from="-8029080#2" to="201237460#1" departLane="best" type="veh_passenger"/>
    <trip id="veh152" depart="399.56" from="759535259" to="8076781" departLane="best" type="veh_passenger" departSpeed="max"/>
    <trip id="veh153" depart="402.19" from="1294818343#1" to="201237460#1" departLane="best" type="veh_passenger"/>
    <trip id="veh154" depart="404.82" from="137209470" to="137308922#1" departLane="best" type="veh_passenger"/>
    <trip id="veh155" depart="407.45" from="-16465959#2" to="-398190313#8" departLane="best" type="veh_passenger"/>
    <trip id="veh156" depart="410.08" from="1294818342#0" to="-16465959#1" departLane="best" type="veh_passenger"/>
    <trip id="veh157" depart="412.71" from="1294818353" to="-16465950#1" departLane="best" type="veh_passenger"/>
    <trip id="veh158" depart="415.33" from="1294818340#0" to="137191879" departLane="best" type="veh_passenger"/>
    <trip id="veh159" depart="417.96" from="-1294818343#1" to="14340740" departLane="best" type="veh_passenger"/>
    <trip id="veh160" depart="420.59" from="541359186#0" to="398190313#7" departLane="best" type="veh_passenger"/>
    <trip id="veh161" depart="423.22" from="-1294818342#3" to="1309692164#0" departLane="best" type="veh_passenger"/>
    <trip id="veh162" depart="425.85" from="93756990" to="-9750333#1" departLane="best" type="veh_passenger"/>
    <trip id="veh163" depart="428.48" from="16465959#2" to="201237460#1" departLane="best" type="veh_passenger"/>
    <trip id="veh164" depart="431.11" from="8076778" to="-398190313#1" departLane="best" type="veh_passenger" departSpeed="max"/>
    <trip id="veh165" depart="433.74" from="-1294818342#3" to="-16465958#0" departLane="best" type="veh_passenger"/>
    <trip id="veh166" depart="436.36" from="-1294818356#1" to="16465956#0" departLane="best" type="veh_passenger" departSpeed="max"/>
    <trip id="veh167" depart="438.99" from="137884480" to="-398190313#8" departLane="best" type="veh_passenger"/>
    <trip id="veh168" depart="441.62" from="-137191882" to="137884480" departLane="best" type="veh_passenger"/>
    <trip id="veh169" depart="444.25" from="674173236#1" to="8597107#1" departLane="best" type="veh_passenger"/>
    <trip id="veh170" depart="446.88" from="-1294818356#1" to="-1294818343#1" departLane="best" type="veh_passenger" departSpeed="max"/>
    <trip id="veh171" depart="449.51" from="-532086362" to="16465956#2" departLane="best" type="veh_passenger"/>
    <trip id="veh172" depart="452.14" from="8170204" to="-9750333#1" departLane="best" type="veh_passenger"/>
    <trip id="veh173" depart="454.77" from="278787276" to="14340731" departLane="best" type="veh_passenger"/>
    <trip id="veh174" depart="457.39" from="1294818345#1" to="-9750333#1" departLane="best" type="veh_passenger"/>
    <trip id="veh175" depart="460.02" from="1309713903" to="-93756990" departLane="best" type="veh_passenger"/>
    <trip id="veh176" depart="462.65" from="759535259" to="398190313#4" departLane="best" type="veh_passenger" departSpeed="max"/>
    <trip id="veh177" depart="465.28" from="-1294818356#0" to="8597107#0" departLane="best" type="veh_passenger"/>
    <trip id="veh178" depart="467.91" from="16465958#1" to="398190313#7" departLane="best" type="veh_passenger"/>
    <trip id="veh179" depart="470.54" from="398190313#1" to="1294818344" departLane="best" type="veh_passenger"/>
    <trip id="veh180" depart="473.17" from="137209465" to="1294818348" departLane="best" type="veh_passenger"/>
    <trip id="veh181" depart="475.79" from="1294818346#1" to="201237460#1" departLane="best" type="veh_passenger"/>
    <trip id="veh182" depart="478.42" from="-398190313#8" to="541359185" departLane="best" type="veh_passenger"/>
    <trip id="veh183" depart="481.05" from="759535259" to="-1294818357#2" departLane="best" type="veh_passenger" departSpeed="max"/>
    <trip id="veh184" depart="483.68" from="-8625131#1" to="-1294818344" departLane="best" type="veh_passenger"/>
    <trip id="veh185" depart="486.31" from="759535259" to="-278787274#2" departLane="best" type="veh_passenger" departSpeed="max"/>
    <trip id="veh186" depart="488.94" from="-16465959#0" to="278787279" departLane="best" type="veh_passenger"/>
    <trip id="veh187" depart="491.57" from="-8029078#1" to="6140652" departLane="best" type="veh_passenger"/>
    <trip id="veh188" depart="494.20" from="-1294818341" to="8029080#2" departLane="best" type="veh_passenger"/>
    <trip id="veh189" depart="496.82" from="-1294818349#1" to="201237460#1" departLane="best" type="veh_passenger"/>
    <trip id="veh190" depart="499.45" from="1294818358#1" to="201237460#1" departLane="best" type="veh_passenger"/>
    <trip id="veh191" depart="502.08" from="278787276" to="14340744" departLane="best" type="veh_passenger"/>
    <trip id="veh192" depart="504.71" from="1309210015" to="278787276" departLane="best" type="veh_passenger"/>
    <trip id="veh193" depart="507.34" from="-1294818350#0" to="-398190313#9" departLane="best" type="veh_passenger"/>
    <trip id="veh194" depart="509.97" from="278787279" to="-8029080#2" departLane="best" type="veh_passenger"/>
    <trip id="veh195" depart="512.60" from="137191882" to="1294818343#0" departLane="best" type="veh_passenger"/>
    <trip id="veh196" depart="515.23" from="541359185" to="-8597107#4" departLane="best" type="veh_passenger"/>
    <trip id="veh197" depart="517.85" from="398190313#0" to="-541361416" departLane="best" type="veh_passenger"/>
    <trip id="veh198" depart="520.48" from="-16465956#0" to="-14340744" departLane="best" type="veh_passenger"/>
    <trip id="veh199" depart="523.11" from="137209465" to="201237461#0" departLane="best" type="veh_passenger"/>
    <trip id="veh200" depart="525.74" from="-16465950#3" to="-398190313#7" departLane="best" type="veh_passenger"/>
    <trip id="veh201" depart="528.37" from="1294818358#0" to="201237460#1" departLane="best" type="veh_passenger"/>
    <trip id="veh202" depart="531.00" from="-16465956#0" to="-532086361#0" departLane="best" type="veh_passenger"/>
    <trip id="veh203" depart="533.63" from="137191883" to="-541361416" departLane="best" type="veh_passenger"/>
    <trip id="veh204" depart="536.26" from="8597107#3" to="1353874822" departLane="best" type="veh_passenger"/>
    <trip id="veh205" depart="538.88" from="278787280" to="-16465950#1" departLane="best" type="veh_passenger"/>
    <trip id="veh206" depart="541.51" from="759535259" to="1294818349#1" departLane="best" type="veh_passenger" departSpeed="max"/>
    <trip id="veh207" depart="544.14" from="759535259" to="137191882" departLane="best" type="veh_passenger" departSpeed="max"/>
    <trip id="veh208" depart="546.77" from="1294818356#0" to="1294818345#1" departLane="best" type="veh_passenger"/>
    <trip id="veh209" depart="549.40" from="759535259" to="122047165" departLane="best" type="veh_passenger" departSpeed="max"/>
    <trip id="veh210" depart="552.03" from="137884480" to="-8029080#2" departLane="best" type="veh_passenger"/>
    <trip id="veh211" depart="554.66" from="8875439" to="-14340744" departLane="best" type="veh_passenger"/>
    <trip id="veh212" depart="557.28" from="137191879" to="1294818346#2" departLane="best" type="veh_passenger"/>
    <trip id="veh213" depart="559.91" from="1294818348" to="541359186#0" departLane="best" type="veh_passenger"/>
    <trip id="veh214" depart="562.54" from="8869656" to="-8029080#2" departLane="best" type="veh_passenger"/>
    <trip id="veh215" depart="565.17" from="541359185" to="8029080#2" departLane="best" type="veh_passenger"/>
    <trip id="veh216" depart="567.80" from="-16465958#1" to="-398190313#5" departLane="best" type="veh_passenger"/>
    <trip id="veh217" depart="570.43" from="201237461#0" to="-16465958#1" departLane="best" type="veh_passenger"/>
    <trip id="veh218" depart="573.06" from="-16465950#0" to="-1294818353" departLane="best" type="veh_passenger"/>
    <trip id="veh219" depart="575.69" from="-1294818340#0" to="1294818346#2" departLane="best" type="veh_passenger"/>
    <trip id="veh220" depart="578.31" from="-278787274#2" to="201237460#1" departLane="best" type="veh_passenger"/>
    <trip id="veh221" depart="580.94" from="278787274#4" to="674173236#1" departLane="best" type="veh_passenger"/>
    <trip id="veh222" depart="583.57" from="201237461#0" to="78140414#1" departLane="best" type="veh_passenger"/>
    <trip id="veh223" depart="586.20" from="1294818345#0" to="1309692164#1" departLane="best" type="veh_passenger"/>
    <trip id="veh224" depart="588.83" from="759535259" to="-1294818350#1" departLane="best" type="veh_passenger" departSpeed="max"/>
    <trip id="veh225" depart="591.46" from="-136473724" to="-8076781" departLane="best" type="veh_passenger"/>
    <trip id="veh226" depart="594.09" from="-487101504" to="-16465950#0" departLane="best" type="veh_passenger" departSpeed="max"/>
    <trip id="veh227" depart="596.72" from="278787276" to="16465959#2" departLane="best" type="veh_passenger"/>
    <trip id="veh228" depart="599.34" from="8076778" to="1294818350#1" departLane="best" type="veh_passenger" departSpeed="max"/>
    <trip id="veh229" depart="601.97" from="1309692163" to="-1294818356#0" departLane="best" type="veh_passenger"/>
    <trip id="veh230" depart="604.60" from="759535259" to="137191883" departLane="best" type="veh_passenger" departSpeed="max"/>
    <trip id="veh231" depart="607.23" from="8076778" to="93756990" departLane="best" type="veh_passenger" departSpeed="max"/>
    <trip id="veh232" depart="609.86" from="278787274#0" to="-541361416" departLane="best" type="veh_passenger"/>
    <trip id="veh233" depart="612.49" from="-1294818346#0" to="201237460#1" departLane="best" type="veh_passenger"/>
    <trip id="veh234" depart="615.12" from="1294818356#0" to="16465950#0" departLane="best" type="veh_passenger"/>
    <trip id="veh235" depart="617.74" from="8076778" to="-278787274#2" departLane="best" type="veh_passenger" departSpeed="max"/>
    <trip id="veh236" depart="620.37" from="1309210015" to="-1294818358#0" departLane="best" type="veh_passenger"/>
    <trip id="veh237" depart="623.00" from="-487101504" to="8029080#0" departLane="best" type="veh_passenger" departSpeed="max"/>
    <trip id="veh238" depart="625.63" from="674173236#1" to="1353874822" departLane="best" type="veh_passenger"/>
    <trip id="veh239" depart="628.26" from="-541359186#1" to="8597107#2" departLane="best" type="veh_passenger"/>
    <trip id="veh240" depart="630.89" from="1294818342#0" to="1294818356#1" departLane="best" type="veh_passenger"/>
    <trip id="veh241" depart="633.52" from="8869655" to="16465950#2" departLane="best" type="veh_passenger"/>
    <trip id="veh242" depart="636.15" from="137209469" to="1294818341" departLane="best" type="veh_passenger"/>
    <trip id="veh243" depart="638.77" from="-16465952" to="-9750333#1" departLane="best" type="veh_passenger"/>
    <trip id="veh244" depart="641.40" from="541359186#1" to="-398190313#2" departLane="best" type="veh_passenger"/>
    <trip id="veh245" depart="644.03" from="1294818346#2" to="16465959#2" departLane="best" type="veh_passenger"/>